* NGSPICE file created from csdac255_parax.ext - technology: sky130A

.subckt csdac255_parax Iout VPWR VGND Vbias bias[2] bias[1] bias[0] data[0] data[1]
+ data[2] data[3] data[4] data[5] data[6] data[7]
X0 XA.XIR[2].XIC_dummy_right.icell.SM XA.XIR[2].XIC_dummy_right.icell.Ien XA.XIR[2].XIC_dummy_right.icell.Iout VGND.t1753 sky130_fd_pr__nfet_g5v0d10v5 ad=0.0625 pd=0.75 as=0.175 ps=1.7 w=0.5 l=0.5
X1 VPWR.t781 XThR.Tn[2].t12 XA.XIR[3].XIC[8].icell.PUM VPWR.t780 sky130_fd_pr__pfet_01v8 ad=0.135 pd=1.54 as=0.0675 ps=0.77 w=0.5 l=0.15
X2 XA.XIR[12].XIC[10].icell.SM XA.XIR[12].XIC[10].icell.Ien Iout.t103 VGND.t775 sky130_fd_pr__nfet_g5v0d10v5 ad=0.0625 pd=0.75 as=0.175 ps=1.7 w=0.5 l=0.5
X3 XA.XIR[11].XIC_dummy_right.icell.Ien VPWR.t1793 VPWR.t1795 VPWR.t1794 sky130_fd_pr__pfet_01v8 ad=0.0725 pd=0.79 as=0.15 ps=1.6 w=0.5 l=0.15
X4 VGND.t1737 XThC.Tn[10].t12 XA.XIR[4].XIC[10].icell.PDM VGND.t1736 sky130_fd_pr__nfet_01v8 ad=0.0725 pd=0.79 as=0.0725 ps=0.79 w=0.5 l=0.15
X5 VGND.t2489 XThR.TBN.t4 a_n997_2667# VGND.t1533 sky130_fd_pr__nfet_01v8 ad=0.08775 pd=0.92 as=0.08775 ps=0.92 w=0.65 l=0.15
X6 VPWR.t351 XThR.Tn[6].t12 XA.XIR[7].XIC[8].icell.PUM VPWR.t350 sky130_fd_pr__pfet_01v8 ad=0.135 pd=1.54 as=0.0675 ps=0.77 w=0.5 l=0.15
X7 XA.XIR[14].XIC[5].icell.Ien XThR.Tn[14].t12 VPWR.t311 VPWR.t310 sky130_fd_pr__pfet_01v8 ad=0.0725 pd=0.79 as=0.15 ps=1.6 w=0.5 l=0.15
X8 XA.XIR[12].XIC[6].icell.PDM XThR.Tn[12].t12 XA.XIR[12].XIC[6].icell.Ien VGND.t113 sky130_fd_pr__nfet_01v8 ad=0.0725 pd=0.79 as=0.2304 ps=2.18 w=0.5 l=0.15
X9 XThC.Tn[6].t11 XThC.TBN.t4 VGND.t2057 VGND.t2056 sky130_fd_pr__nfet_01v8 ad=0.08775 pd=0.92 as=0.169 ps=1.82 w=0.65 l=0.15
X10 XA.XIR[5].XIC_dummy_left.icell.PDM VPWR.t1926 VGND.t2347 VGND.t2346 sky130_fd_pr__nfet_01v8 ad=0.1312 pd=1.54 as=0.0725 ps=0.79 w=0.5 l=0.15
X11 XA.XIR[10].XIC[2].icell.PDM XThR.Tn[9].t12 VGND.t2119 VGND.t2118 sky130_fd_pr__nfet_01v8 ad=0.1312 pd=1.54 as=0.0725 ps=0.79 w=0.5 l=0.15
X12 VGND.t2058 XThC.TBN.t5 XThC.Tn[5].t11 VGND.t500 sky130_fd_pr__nfet_01v8 ad=0.08775 pd=0.92 as=0.08775 ps=0.92 w=0.65 l=0.15
X13 XA.XIR[15].XIC[9].icell.PUM XThC.Tn[9].t12 XA.XIR[15].XIC[9].icell.Ien VPWR.t378 sky130_fd_pr__pfet_01v8 ad=0.0675 pd=0.77 as=0.0725 ps=0.79 w=0.5 l=0.15
X14 XA.XIR[9].XIC[0].icell.SM XA.XIR[9].XIC[0].icell.Ien Iout.t236 VGND.t2483 sky130_fd_pr__nfet_g5v0d10v5 ad=0.0625 pd=0.75 as=0.175 ps=1.7 w=0.5 l=0.5
X15 XA.XIR[13].XIC[3].icell.PDM XThR.Tn[12].t13 VGND.t115 VGND.t114 sky130_fd_pr__nfet_01v8 ad=0.1312 pd=1.54 as=0.0725 ps=0.79 w=0.5 l=0.15
X16 VGND.t2413 XThC.Tn[11].t12 XA.XIR[12].XIC[11].icell.PDM VGND.t2412 sky130_fd_pr__nfet_01v8 ad=0.0725 pd=0.79 as=0.0725 ps=0.79 w=0.5 l=0.15
X17 XA.XIR[12].XIC[1].icell.SM XA.XIR[12].XIC[1].icell.Ien Iout.t176 VGND.t1408 sky130_fd_pr__nfet_g5v0d10v5 ad=0.0625 pd=0.75 as=0.175 ps=1.7 w=0.5 l=0.5
X18 XA.XIR[8].XIC[12].icell.SM XA.XIR[8].XIC[12].icell.Ien Iout.t149 VGND.t1290 sky130_fd_pr__nfet_g5v0d10v5 ad=0.0625 pd=0.75 as=0.175 ps=1.7 w=0.5 l=0.5
X19 XThC.Tn[12].t11 XThC.TB5 VPWR.t1271 VPWR.t74 sky130_fd_pr__pfet_01v8_hvt ad=0.135 pd=1.27 as=0.135 ps=1.27 w=1 l=0.15
X20 XA.XIR[8].XIC_15.icell.PDM VPWR.t1927 VGND.t2349 VGND.t2348 sky130_fd_pr__nfet_01v8 ad=0.1312 pd=1.54 as=0.0725 ps=0.79 w=0.5 l=0.15
X21 XA.XIR[7].XIC[13].icell.SM XA.XIR[7].XIC[13].icell.Ien Iout.t147 VGND.t1288 sky130_fd_pr__nfet_g5v0d10v5 ad=0.0625 pd=0.75 as=0.175 ps=1.7 w=0.5 l=0.5
X22 XA.XIR[14].XIC[13].icell.PUM XThC.Tn[13].t12 XA.XIR[14].XIC[13].icell.Ien VPWR.t1150 sky130_fd_pr__pfet_01v8 ad=0.0675 pd=0.77 as=0.0725 ps=0.79 w=0.5 l=0.15
X23 a_2979_9615# XThC.TBN.t6 XThC.Tn[0].t4 VPWR.t1240 sky130_fd_pr__pfet_01v8_hvt ad=0.135 pd=1.27 as=0.135 ps=1.27 w=1 l=0.15
X24 XA.XIR[11].XIC_dummy_left.icell.PUM VPWR.t1791 XA.XIR[11].XIC_dummy_left.icell.Ien VPWR.t1792 sky130_fd_pr__pfet_01v8 ad=0.0675 pd=0.77 as=0.0725 ps=0.79 w=0.5 l=0.15
X25 XA.XIR[10].XIC[14].icell.SM XA.XIR[10].XIC[14].icell.Ien Iout.t197 VGND.t1723 sky130_fd_pr__nfet_g5v0d10v5 ad=0.0625 pd=0.75 as=0.175 ps=1.7 w=0.5 l=0.5
X26 a_4861_9615# XThC.TB4.t2 VPWR.t1340 VPWR.t561 sky130_fd_pr__pfet_01v8_hvt ad=0.135 pd=1.27 as=0.135 ps=1.27 w=1 l=0.15
X27 a_5949_9615# XThC.TBN.t7 XThC.Tn[5].t7 VPWR.t387 sky130_fd_pr__pfet_01v8_hvt ad=0.135 pd=1.27 as=0.135 ps=1.27 w=1 l=0.15
X28 XA.XIR[6].XIC[10].icell.PDM XThR.Tn[6].t13 XA.XIR[6].XIC[10].icell.Ien VGND.t412 sky130_fd_pr__nfet_01v8 ad=0.0725 pd=0.79 as=0.2304 ps=2.18 w=0.5 l=0.15
X29 XA.XIR[0].XIC[4].icell.PDM VGND.t1926 VGND.t1928 VGND.t1927 sky130_fd_pr__nfet_01v8 ad=0.1312 pd=1.54 as=0.0725 ps=0.79 w=0.5 l=0.15
X30 XA.XIR[4].XIC[12].icell.PDM XThR.Tn[3].t12 VGND.t1733 VGND.t1732 sky130_fd_pr__nfet_01v8 ad=0.1312 pd=1.54 as=0.0725 ps=0.79 w=0.5 l=0.15
X31 XThR.Tn[5].t7 XThR.TBN.t5 a_n1049_5611# VPWR.t1324 sky130_fd_pr__pfet_01v8_hvt ad=0.135 pd=1.27 as=0.135 ps=1.27 w=1 l=0.15
X32 XThC.Tn[4].t11 XThC.TB5 VGND.t2098 VGND.t610 sky130_fd_pr__nfet_01v8 ad=0.08775 pd=0.92 as=0.08775 ps=0.92 w=0.65 l=0.15
X33 VGND.t2059 XThC.TBN.t8 XThC.Tn[2].t11 VGND.t751 sky130_fd_pr__nfet_01v8 ad=0.08775 pd=0.92 as=0.08775 ps=0.92 w=0.65 l=0.15
X34 XThR.TB2 XThR.TA2 VPWR.t32 VPWR.t31 sky130_fd_pr__pfet_01v8_hvt ad=0.135 pd=1.27 as=0.26 ps=2.52 w=1 l=0.15
X35 XA.XIR[7].XIC[13].icell.PDM XThR.Tn[6].t14 VGND.t414 VGND.t413 sky130_fd_pr__nfet_01v8 ad=0.1312 pd=1.54 as=0.0725 ps=0.79 w=0.5 l=0.15
X36 XA.XIR[6].XIC[11].icell.SM XA.XIR[6].XIC[11].icell.Ien Iout.t175 VGND.t1407 sky130_fd_pr__nfet_g5v0d10v5 ad=0.0625 pd=0.75 as=0.175 ps=1.7 w=0.5 l=0.5
X37 VGND.t2069 XThC.Tn[2].t12 XA.XIR[12].XIC[2].icell.PDM VGND.t2068 sky130_fd_pr__nfet_01v8 ad=0.0725 pd=0.79 as=0.0725 ps=0.79 w=0.5 l=0.15
X38 VPWR.t1790 VPWR.t1788 XA.XIR[10].XIC_dummy_left.icell.PUM VPWR.t1789 sky130_fd_pr__pfet_01v8 ad=0.135 pd=1.54 as=0.0675 ps=0.77 w=0.5 l=0.15
X39 VGND.t2351 VPWR.t1928 XA.XIR[7].XIC_dummy_left.icell.PDM VGND.t2350 sky130_fd_pr__nfet_01v8 ad=0.0725 pd=0.79 as=0.0725 ps=0.79 w=0.5 l=0.15
X40 VPWR.t1022 XThR.Tn[3].t13 XA.XIR[4].XIC[11].icell.PUM VPWR.t1021 sky130_fd_pr__pfet_01v8 ad=0.135 pd=1.54 as=0.0675 ps=0.77 w=0.5 l=0.15
X41 VGND.t672 Vbias.t6 XA.XIR[14].XIC[11].icell.SM VGND.t671 sky130_fd_pr__nfet_g5v0d10v5 ad=0.175 pd=1.7 as=0.0625 ps=0.75 w=0.5 l=0.5
X42 XA.XIR[2].XIC[1].icell.PUM XThC.Tn[1].t12 XA.XIR[2].XIC[1].icell.Ien VPWR.t816 sky130_fd_pr__pfet_01v8 ad=0.0675 pd=0.77 as=0.0725 ps=0.79 w=0.5 l=0.15
X43 VGND.t471 XThC.Tn[3].t12 XA.XIR[15].XIC[3].icell.PDM VGND.t470 sky130_fd_pr__nfet_01v8 ad=0.0725 pd=0.79 as=0.0725 ps=0.79 w=0.5 l=0.15
X44 VGND.t2353 VPWR.t1929 XA.XIR[10].XIC_15.icell.PDM VGND.t2352 sky130_fd_pr__nfet_01v8 ad=0.0725 pd=0.79 as=0.0725 ps=0.79 w=0.5 l=0.15
X45 VPWR.t1115 XThR.Tn[10].t12 XA.XIR[11].XIC[9].icell.PUM VPWR.t1114 sky130_fd_pr__pfet_01v8 ad=0.135 pd=1.54 as=0.0675 ps=0.77 w=0.5 l=0.15
X46 XA.XIR[0].XIC[14].icell.PUM XThC.Tn[14].t12 XA.XIR[0].XIC[14].icell.Ien VPWR.t697 sky130_fd_pr__pfet_01v8 ad=0.0675 pd=0.77 as=0.0725 ps=0.79 w=0.5 l=0.15
X47 XA.XIR[13].XIC_dummy_left.icell.Ien VPWR.t1785 VPWR.t1787 VPWR.t1786 sky130_fd_pr__pfet_01v8 ad=0.0725 pd=0.79 as=0.15 ps=1.6 w=0.5 l=0.15
X48 a_7651_9569# XThC.TB1.t3 XThC.Tn[8].t7 VGND.t169 sky130_fd_pr__nfet_01v8 ad=0.08775 pd=0.92 as=0.08775 ps=0.92 w=0.65 l=0.15
X49 VGND.t674 Vbias.t7 XA.XIR[2].XIC[5].icell.SM VGND.t673 sky130_fd_pr__nfet_g5v0d10v5 ad=0.175 pd=1.7 as=0.0625 ps=0.75 w=0.5 l=0.5
X50 XA.XIR[1].XIC[6].icell.Ien XThR.Tn[1].t12 VPWR.t1286 VPWR.t1285 sky130_fd_pr__pfet_01v8 ad=0.0725 pd=0.79 as=0.15 ps=1.6 w=0.5 l=0.15
X51 a_10051_9569# XThC.TB6 XThC.Tn[13].t3 VGND.t167 sky130_fd_pr__nfet_01v8 ad=0.169 pd=1.82 as=0.08775 ps=0.92 w=0.65 l=0.15
X52 VGND.t1930 XThC.Tn[4].t12 XA.XIR[2].XIC[4].icell.PDM VGND.t1929 sky130_fd_pr__nfet_01v8 ad=0.0725 pd=0.79 as=0.0725 ps=0.79 w=0.5 l=0.15
X53 XThC.TB5 XThC.TAN VGND.t756 VGND.t610 sky130_fd_pr__nfet_01v8 ad=0.08775 pd=0.92 as=0.169 ps=1.82 w=0.65 l=0.15
X54 XThC.Tn[7].t7 XThC.TBN.t9 VPWR.t1242 VPWR.t1241 sky130_fd_pr__pfet_01v8_hvt ad=0.135 pd=1.27 as=0.26 ps=2.52 w=1 l=0.15
X55 XA.XIR[10].XIC[6].icell.PDM XThR.Tn[9].t13 VGND.t2121 VGND.t2120 sky130_fd_pr__nfet_01v8 ad=0.1312 pd=1.54 as=0.0725 ps=0.79 w=0.5 l=0.15
X56 VGND.t1318 XThR.TB7 XThR.Tn[6].t3 VGND.t1317 sky130_fd_pr__nfet_01v8 ad=0.08775 pd=0.92 as=0.08775 ps=0.92 w=0.65 l=0.15
X57 XA.XIR[4].XIC[7].icell.Ien XThR.Tn[4].t12 VPWR.t210 VPWR.t209 sky130_fd_pr__pfet_01v8 ad=0.0725 pd=0.79 as=0.15 ps=1.6 w=0.5 l=0.15
X58 VPWR.t1829 XThR.TBN.t6 XThR.Tn[9].t3 VPWR.t1828 sky130_fd_pr__pfet_01v8_hvt ad=0.135 pd=1.27 as=0.135 ps=1.27 w=1 l=0.15
X59 XThR.TB7 XThR.TA3 VGND.t2674 VGND.t2673 sky130_fd_pr__nfet_01v8 ad=0.08775 pd=0.92 as=0.169 ps=1.82 w=0.65 l=0.15
X60 XA.XIR[3].XIC[8].icell.Ien XThR.Tn[3].t14 VPWR.t1024 VPWR.t1023 sky130_fd_pr__pfet_01v8 ad=0.0725 pd=0.79 as=0.15 ps=1.6 w=0.5 l=0.15
X61 VPWR.t1026 XThR.Tn[3].t15 XA.XIR[4].XIC[2].icell.PUM VPWR.t1025 sky130_fd_pr__pfet_01v8 ad=0.135 pd=1.54 as=0.0675 ps=0.77 w=0.5 l=0.15
X62 XA.XIR[13].XIC[7].icell.PDM XThR.Tn[12].t14 VGND.t117 VGND.t116 sky130_fd_pr__nfet_01v8 ad=0.1312 pd=1.54 as=0.0725 ps=0.79 w=0.5 l=0.15
X63 XA.XIR[1].XIC[9].icell.PDM XThR.Tn[1].t13 XA.XIR[1].XIC[9].icell.Ien VGND.t2106 sky130_fd_pr__nfet_01v8 ad=0.0725 pd=0.79 as=0.2304 ps=2.18 w=0.5 l=0.15
X64 VPWR.t779 XThR.Tn[2].t13 XA.XIR[3].XIC[3].icell.PUM VPWR.t778 sky130_fd_pr__pfet_01v8 ad=0.135 pd=1.54 as=0.0675 ps=0.77 w=0.5 l=0.15
X65 XA.XIR[5].XIC_dummy_left.icell.SM XA.XIR[5].XIC_dummy_left.icell.Ien XA.XIR[5].XIC_dummy_left.icell.Iout VGND.t601 sky130_fd_pr__nfet_g5v0d10v5 ad=0.0625 pd=0.75 as=0.175 ps=1.7 w=0.5 l=0.5
X66 VPWR.t353 XThR.Tn[6].t15 XA.XIR[7].XIC[3].icell.PUM VPWR.t352 sky130_fd_pr__pfet_01v8 ad=0.135 pd=1.54 as=0.0675 ps=0.77 w=0.5 l=0.15
X67 VPWR.t1784 VPWR.t1782 XA.XIR[2].XIC_15.icell.PUM VPWR.t1783 sky130_fd_pr__pfet_01v8 ad=0.135 pd=1.54 as=0.0675 ps=0.77 w=0.5 l=0.15
X68 a_6243_9615# XThC.TB7 VPWR.t658 VPWR.t37 sky130_fd_pr__pfet_01v8_hvt ad=0.28 pd=2.56 as=0.135 ps=1.27 w=1 l=0.15
X69 XA.XIR[11].XIC[14].icell.PDM XThR.Tn[11].t12 XA.XIR[11].XIC[14].icell.Ien VGND.t1609 sky130_fd_pr__nfet_01v8 ad=0.0725 pd=0.79 as=0.2304 ps=2.18 w=0.5 l=0.15
X70 XA.XIR[11].XIC[8].icell.PDM XThR.Tn[11].t13 XA.XIR[11].XIC[8].icell.Ien VGND.t1610 sky130_fd_pr__nfet_01v8 ad=0.0725 pd=0.79 as=0.2304 ps=2.18 w=0.5 l=0.15
X71 XA.XIR[4].XIC[10].icell.PDM XThR.Tn[3].t16 VGND.t1735 VGND.t1734 sky130_fd_pr__nfet_01v8 ad=0.1312 pd=1.54 as=0.0725 ps=0.79 w=0.5 l=0.15
X72 XThR.Tn[7].t7 XThR.TBN.t7 VPWR.t1831 VPWR.t1830 sky130_fd_pr__pfet_01v8_hvt ad=0.135 pd=1.27 as=0.26 ps=2.52 w=1 l=0.15
X73 XA.XIR[1].XIC[12].icell.PDM XThR.Tn[0].t12 VGND.t810 VGND.t809 sky130_fd_pr__nfet_01v8 ad=0.1312 pd=1.54 as=0.0725 ps=0.79 w=0.5 l=0.15
X74 a_8963_9569# XThC.TBN.t10 VGND.t1353 VGND.t126 sky130_fd_pr__nfet_01v8 ad=0.08775 pd=0.92 as=0.08775 ps=0.92 w=0.65 l=0.15
X75 VGND.t676 Vbias.t8 XA.XIR[12].XIC[7].icell.SM VGND.t675 sky130_fd_pr__nfet_g5v0d10v5 ad=0.175 pd=1.7 as=0.0625 ps=0.75 w=0.5 l=0.5
X76 VGND.t643 XThC.Tn[6].t12 XA.XIR[12].XIC[6].icell.PDM VGND.t642 sky130_fd_pr__nfet_01v8 ad=0.0725 pd=0.79 as=0.0725 ps=0.79 w=0.5 l=0.15
X77 XA.XIR[6].XIC[9].icell.SM XA.XIR[6].XIC[9].icell.Ien Iout.t143 VGND.t1284 sky130_fd_pr__nfet_g5v0d10v5 ad=0.0625 pd=0.75 as=0.175 ps=1.7 w=0.5 l=0.5
X78 XA.XIR[2].XIC_dummy_left.icell.SM XA.XIR[2].XIC_dummy_left.icell.Ien XA.XIR[2].XIC_dummy_left.icell.Iout VGND.t1608 sky130_fd_pr__nfet_g5v0d10v5 ad=0.0625 pd=0.75 as=0.175 ps=1.7 w=0.5 l=0.5
X79 XA.XIR[3].XIC[11].icell.SM XA.XIR[3].XIC[11].icell.Ien Iout.t94 VGND.t746 sky130_fd_pr__nfet_g5v0d10v5 ad=0.0625 pd=0.75 as=0.175 ps=1.7 w=0.5 l=0.5
X80 VGND.t2355 VPWR.t1930 XA.XIR[4].XIC_dummy_left.icell.PDM VGND.t2354 sky130_fd_pr__nfet_01v8 ad=0.0725 pd=0.79 as=0.0725 ps=0.79 w=0.5 l=0.15
X81 VGND.t2491 XThR.TBN.t8 XThR.Tn[5].t11 VGND.t2490 sky130_fd_pr__nfet_01v8 ad=0.169 pd=1.82 as=0.08775 ps=0.92 w=0.65 l=0.15
X82 VGND.t678 Vbias.t9 XA.XIR[15].XIC[8].icell.SM VGND.t677 sky130_fd_pr__nfet_g5v0d10v5 ad=0.175 pd=1.7 as=0.0625 ps=0.75 w=0.5 l=0.5
X83 VGND.t680 Vbias.t10 XA.XIR[14].XIC[9].icell.SM VGND.t679 sky130_fd_pr__nfet_g5v0d10v5 ad=0.175 pd=1.7 as=0.0625 ps=0.75 w=0.5 l=0.5
X84 VGND.t1988 XThC.Tn[7].t8 XA.XIR[15].XIC[7].icell.PDM VGND.t1987 sky130_fd_pr__nfet_01v8 ad=0.0725 pd=0.79 as=0.0725 ps=0.79 w=0.5 l=0.15
X85 VGND.t2415 XThC.Tn[11].t13 XA.XIR[6].XIC[11].icell.PDM VGND.t2414 sky130_fd_pr__nfet_01v8 ad=0.0725 pd=0.79 as=0.0725 ps=0.79 w=0.5 l=0.15
X86 VGND.t1321 XThC.Tn[1].t13 XA.XIR[3].XIC[1].icell.PDM VGND.t1320 sky130_fd_pr__nfet_01v8 ad=0.0725 pd=0.79 as=0.0725 ps=0.79 w=0.5 l=0.15
X87 XA.XIR[4].XIC[11].icell.Ien XThR.Tn[4].t13 VPWR.t212 VPWR.t211 sky130_fd_pr__pfet_01v8 ad=0.0725 pd=0.79 as=0.15 ps=1.6 w=0.5 l=0.15
X88 VPWR.t1141 XThR.TB6 a_n1049_5611# VPWR.t800 sky130_fd_pr__pfet_01v8_hvt ad=0.135 pd=1.27 as=0.28 ps=2.56 w=1 l=0.15
X89 XA.XIR[14].XIC[6].icell.PUM XThC.Tn[6].t13 XA.XIR[14].XIC[6].icell.Ien VPWR.t513 sky130_fd_pr__pfet_01v8 ad=0.0675 pd=0.77 as=0.0725 ps=0.79 w=0.5 l=0.15
X90 VGND.t682 Vbias.t11 XA.XIR[9].XIC[7].icell.SM VGND.t681 sky130_fd_pr__nfet_g5v0d10v5 ad=0.175 pd=1.7 as=0.0625 ps=0.75 w=0.5 l=0.5
X91 VGND.t2071 XThC.Tn[2].t13 XA.XIR[6].XIC[2].icell.PDM VGND.t2070 sky130_fd_pr__nfet_01v8 ad=0.0725 pd=0.79 as=0.0725 ps=0.79 w=0.5 l=0.15
X92 XA.XIR[11].XIC[9].icell.Ien XThR.Tn[11].t14 VPWR.t954 VPWR.t953 sky130_fd_pr__pfet_01v8 ad=0.0725 pd=0.79 as=0.15 ps=1.6 w=0.5 l=0.15
X93 XA.XIR[6].XIC_dummy_left.icell.PDM VPWR.t1931 XA.XIR[6].XIC_dummy_left.icell.Ien VGND.t2356 sky130_fd_pr__nfet_01v8 ad=0.0725 pd=0.79 as=0.2304 ps=2.18 w=0.5 l=0.15
X94 a_n1049_7787# XThR.TB2 VPWR.t1908 VPWR.t659 sky130_fd_pr__pfet_01v8_hvt ad=0.135 pd=1.27 as=0.135 ps=1.27 w=1 l=0.15
X95 VGND.t483 XThC.Tn[9].t13 XA.XIR[14].XIC[9].icell.PDM VGND.t482 sky130_fd_pr__nfet_01v8 ad=0.0725 pd=0.79 as=0.0725 ps=0.79 w=0.5 l=0.15
X96 XA.XIR[8].XIC[11].icell.PDM XThR.Tn[8].t12 XA.XIR[8].XIC[11].icell.Ien VGND.t636 sky130_fd_pr__nfet_01v8 ad=0.0725 pd=0.79 as=0.2304 ps=2.18 w=0.5 l=0.15
X97 VGND.t684 Vbias.t12 XA.XIR[2].XIC[0].icell.SM VGND.t683 sky130_fd_pr__nfet_g5v0d10v5 ad=0.175 pd=1.7 as=0.0625 ps=0.75 w=0.5 l=0.5
X98 XA.XIR[1].XIC[1].icell.Ien XThR.Tn[1].t14 VPWR.t58 VPWR.t57 sky130_fd_pr__pfet_01v8 ad=0.0725 pd=0.79 as=0.15 ps=1.6 w=0.5 l=0.15
X99 XA.XIR[13].XIC[4].icell.PUM XThC.Tn[4].t13 XA.XIR[13].XIC[4].icell.Ien VPWR.t973 sky130_fd_pr__pfet_01v8 ad=0.0675 pd=0.77 as=0.0725 ps=0.79 w=0.5 l=0.15
X100 XA.XIR[8].XIC_dummy_right.icell.PUM VPWR.t1780 XA.XIR[8].XIC_dummy_right.icell.Ien VPWR.t1781 sky130_fd_pr__pfet_01v8 ad=0.0675 pd=0.77 as=0.0725 ps=0.79 w=0.5 l=0.15
X101 VGND.t686 Vbias.t13 XA.XIR[0].XIC[13].icell.SM VGND.t685 sky130_fd_pr__nfet_g5v0d10v5 ad=0.175 pd=1.7 as=0.0625 ps=0.75 w=0.5 l=0.5
X102 XA.XIR[1].XIC[10].icell.PDM XThR.Tn[0].t13 VGND.t812 VGND.t811 sky130_fd_pr__nfet_01v8 ad=0.1312 pd=1.54 as=0.0725 ps=0.79 w=0.5 l=0.15
X103 XA.XIR[4].XIC[2].icell.Ien XThR.Tn[4].t14 VPWR.t1249 VPWR.t1248 sky130_fd_pr__pfet_01v8 ad=0.0725 pd=0.79 as=0.15 ps=1.6 w=0.5 l=0.15
X104 XA.XIR[9].XIC[14].icell.PDM XThR.Tn[8].t13 VGND.t638 VGND.t637 sky130_fd_pr__nfet_01v8 ad=0.1312 pd=1.54 as=0.0725 ps=0.79 w=0.5 l=0.15
X105 XA.XIR[9].XIC[8].icell.PDM XThR.Tn[8].t14 VGND.t640 VGND.t639 sky130_fd_pr__nfet_01v8 ad=0.1312 pd=1.54 as=0.0725 ps=0.79 w=0.5 l=0.15
X106 XA.XIR[3].XIC[3].icell.Ien XThR.Tn[3].t17 VPWR.t603 VPWR.t602 sky130_fd_pr__pfet_01v8 ad=0.0725 pd=0.79 as=0.15 ps=1.6 w=0.5 l=0.15
X107 VGND.t2046 XThC.Tn[12].t12 XA.XIR[0].XIC[12].icell.PDM VGND.t2045 sky130_fd_pr__nfet_01v8 ad=0.0725 pd=0.79 as=0.0725 ps=0.79 w=0.5 l=0.15
X108 VPWR.t951 XThC.TB3.t3 a_4067_9615# VPWR.t38 sky130_fd_pr__pfet_01v8_hvt ad=0.135 pd=1.27 as=0.135 ps=1.27 w=1 l=0.15
X109 XA.XIR[1].XIC[4].icell.PDM XThR.Tn[1].t15 XA.XIR[1].XIC[4].icell.Ien VGND.t106 sky130_fd_pr__nfet_01v8 ad=0.0725 pd=0.79 as=0.2304 ps=2.18 w=0.5 l=0.15
X110 XA.XIR[5].XIC[1].icell.PDM XThR.Tn[5].t12 XA.XIR[5].XIC[1].icell.Ien VGND.t345 sky130_fd_pr__nfet_01v8 ad=0.0725 pd=0.79 as=0.2304 ps=2.18 w=0.5 l=0.15
X111 VPWR.t822 data[4].t0 a_n1335_4229# VPWR.t821 sky130_fd_pr__pfet_01v8_hvt ad=0.26 pd=2.52 as=0.105 ps=1.21 w=1 l=0.15
X112 XA.XIR[2].XIC_15.icell.Ien XThR.Tn[2].t14 VPWR.t777 VPWR.t776 sky130_fd_pr__pfet_01v8 ad=0.0725 pd=0.79 as=0.15 ps=1.6 w=0.5 l=0.15
X113 XA.XIR[3].XIC[9].icell.SM XA.XIR[3].XIC[9].icell.Ien Iout.t128 VGND.t1158 sky130_fd_pr__nfet_g5v0d10v5 ad=0.0625 pd=0.75 as=0.175 ps=1.7 w=0.5 l=0.5
X114 XA.XIR[9].XIC[1].icell.PDM XThR.Tn[9].t14 XA.XIR[9].XIC[1].icell.Ien VGND.t2122 sky130_fd_pr__nfet_01v8 ad=0.0725 pd=0.79 as=0.2304 ps=2.18 w=0.5 l=0.15
X115 VGND.t132 XThR.TBN.t9 XThR.Tn[7].t3 VGND.t131 sky130_fd_pr__nfet_01v8 ad=0.08775 pd=0.92 as=0.08775 ps=0.92 w=0.65 l=0.15
X116 XA.XIR[4].XIC[5].icell.PDM XThR.Tn[4].t15 XA.XIR[4].XIC[5].icell.Ien VGND.t2076 sky130_fd_pr__nfet_01v8 ad=0.0725 pd=0.79 as=0.2304 ps=2.18 w=0.5 l=0.15
X117 a_n1319_5317# XThR.TA3 VPWR.t1917 VPWR.t29 sky130_fd_pr__pfet_01v8_hvt ad=0.105 pd=1.21 as=0.26 ps=2.52 w=1 l=0.15
X118 XA.XIR[8].XIC[2].icell.PDM XThR.Tn[8].t15 XA.XIR[8].XIC[2].icell.Ien VGND.t641 sky130_fd_pr__nfet_01v8 ad=0.0725 pd=0.79 as=0.2304 ps=2.18 w=0.5 l=0.15
X119 VPWR.t1 XThR.Tn[13].t12 XA.XIR[14].XIC[14].icell.PUM VPWR.t0 sky130_fd_pr__pfet_01v8 ad=0.135 pd=1.54 as=0.0675 ps=0.77 w=0.5 l=0.15
X120 XA.XIR[11].XIC[3].icell.PDM XThR.Tn[11].t15 XA.XIR[11].XIC[3].icell.Ien VGND.t1611 sky130_fd_pr__nfet_01v8 ad=0.0725 pd=0.79 as=0.2304 ps=2.18 w=0.5 l=0.15
X121 XA.XIR[7].XIC[8].icell.PUM XThC.Tn[8].t12 XA.XIR[7].XIC[8].icell.Ien VPWR.t289 sky130_fd_pr__pfet_01v8 ad=0.0675 pd=0.77 as=0.0725 ps=0.79 w=0.5 l=0.15
X122 XThC.Tn[9].t7 XThC.TB2 VPWR.t404 VPWR.t397 sky130_fd_pr__pfet_01v8_hvt ad=0.135 pd=1.27 as=0.135 ps=1.27 w=1 l=0.15
X123 XA.XIR[15].XIC[4].icell.Ien VPWR.t1777 VPWR.t1779 VPWR.t1778 sky130_fd_pr__pfet_01v8 ad=0.0725 pd=0.79 as=0.15 ps=1.6 w=0.5 l=0.15
X124 VGND.t688 Vbias.t14 XA.XIR[12].XIC[2].icell.SM VGND.t687 sky130_fd_pr__nfet_g5v0d10v5 ad=0.175 pd=1.7 as=0.0625 ps=0.75 w=0.5 l=0.5
X125 XA.XIR[6].XIC[4].icell.SM XA.XIR[6].XIC[4].icell.Ien Iout.t109 VGND.t849 sky130_fd_pr__nfet_g5v0d10v5 ad=0.0625 pd=0.75 as=0.175 ps=1.7 w=0.5 l=0.5
X126 VGND.t690 Vbias.t15 XA.XIR[11].XIC_15.icell.SM VGND.t689 sky130_fd_pr__nfet_g5v0d10v5 ad=0.175 pd=1.7 as=0.0625 ps=0.75 w=0.5 l=0.5
X127 XA.XIR[10].XIC_dummy_right.icell.Ien VPWR.t1774 VPWR.t1776 VPWR.t1775 sky130_fd_pr__pfet_01v8 ad=0.0725 pd=0.79 as=0.15 ps=1.6 w=0.5 l=0.15
X128 XThC.Tn[5].t10 XThC.TBN.t11 VGND.t1354 VGND.t500 sky130_fd_pr__nfet_01v8 ad=0.08775 pd=0.92 as=0.08775 ps=0.92 w=0.65 l=0.15
X129 XA.XIR[1].XIC_dummy_right.icell.SM XA.XIR[1].XIC_dummy_right.icell.Ien XA.XIR[1].XIC_dummy_right.icell.Iout VGND.t257 sky130_fd_pr__nfet_g5v0d10v5 ad=0.0625 pd=0.75 as=0.175 ps=1.7 w=0.5 l=0.5
X130 VGND.t930 Vbias.t16 XA.XIR[15].XIC[3].icell.SM VGND.t929 sky130_fd_pr__nfet_g5v0d10v5 ad=0.175 pd=1.7 as=0.0625 ps=0.75 w=0.5 l=0.5
X131 VGND.t932 Vbias.t17 XA.XIR[14].XIC[4].icell.SM VGND.t931 sky130_fd_pr__nfet_g5v0d10v5 ad=0.175 pd=1.7 as=0.0625 ps=0.75 w=0.5 l=0.5
X132 VGND.t645 XThC.Tn[6].t14 XA.XIR[6].XIC[6].icell.PDM VGND.t644 sky130_fd_pr__nfet_01v8 ad=0.0725 pd=0.79 as=0.0725 ps=0.79 w=0.5 l=0.15
X133 VPWR.t512 XThR.Tn[8].t16 XA.XIR[9].XIC[4].icell.PUM VPWR.t511 sky130_fd_pr__pfet_01v8 ad=0.135 pd=1.54 as=0.0675 ps=0.77 w=0.5 l=0.15
X134 VPWR.t62 XThR.Tn[12].t15 XA.XIR[13].XIC[12].icell.PUM VPWR.t61 sky130_fd_pr__pfet_01v8 ad=0.135 pd=1.54 as=0.0675 ps=0.77 w=0.5 l=0.15
X135 VGND.t1925 VGND.t1923 XA.XIR[13].XIC_dummy_right.icell.SM VGND.t1924 sky130_fd_pr__nfet_g5v0d10v5 ad=0.175 pd=1.7 as=0.0625 ps=0.75 w=0.5 l=0.5
X136 XThR.Tn[9].t7 XThR.TB2 a_n997_3755# VGND.t1784 sky130_fd_pr__nfet_01v8 ad=0.08775 pd=0.92 as=0.169 ps=1.82 w=0.65 l=0.15
X137 XThC.Tn[0].t3 XThC.TBN.t12 a_2979_9615# VPWR.t831 sky130_fd_pr__pfet_01v8_hvt ad=0.135 pd=1.27 as=0.135 ps=1.27 w=1 l=0.15
X138 XA.XIR[4].XIC_dummy_left.icell.PDM VPWR.t1932 VGND.t2358 VGND.t2357 sky130_fd_pr__nfet_01v8 ad=0.1312 pd=1.54 as=0.0725 ps=0.79 w=0.5 l=0.15
X139 XThC.Tn[5].t6 XThC.TBN.t13 a_5949_9615# VPWR.t387 sky130_fd_pr__pfet_01v8_hvt ad=0.135 pd=1.27 as=0.27 ps=2.54 w=1 l=0.15
X140 VGND.t2097 XThC.TB5 XThC.Tn[4].t10 VGND.t610 sky130_fd_pr__nfet_01v8 ad=0.08775 pd=0.92 as=0.08775 ps=0.92 w=0.65 l=0.15
X141 XA.XIR[14].XIC[1].icell.PUM XThC.Tn[1].t14 XA.XIR[14].XIC[1].icell.Ien VPWR.t817 sky130_fd_pr__pfet_01v8 ad=0.0675 pd=0.77 as=0.0725 ps=0.79 w=0.5 l=0.15
X142 VGND.t934 Vbias.t18 XA.XIR[9].XIC[2].icell.SM VGND.t933 sky130_fd_pr__nfet_g5v0d10v5 ad=0.175 pd=1.7 as=0.0625 ps=0.75 w=0.5 l=0.5
X143 a_9827_9569# XThC.TB5 XThC.Tn[12].t7 VGND.t70 sky130_fd_pr__nfet_01v8 ad=0.169 pd=1.82 as=0.08775 ps=0.92 w=0.65 l=0.15
X144 XA.XIR[13].XIC[0].icell.PUM XThC.Tn[0].t12 XA.XIR[13].XIC[0].icell.Ien VPWR.t1037 sky130_fd_pr__pfet_01v8 ad=0.0675 pd=0.77 as=0.0725 ps=0.79 w=0.5 l=0.15
X145 XThC.Tn[7].t3 XThC.TBN.t14 VGND.t1356 VGND.t1355 sky130_fd_pr__nfet_01v8 ad=0.08775 pd=0.92 as=0.169 ps=1.82 w=0.65 l=0.15
X146 XThC.Tn[2].t10 XThC.TBN.t15 VGND.t1357 VGND.t751 sky130_fd_pr__nfet_01v8 ad=0.08775 pd=0.92 as=0.169 ps=1.82 w=0.65 l=0.15
X147 VGND.t1739 XThC.Tn[10].t13 XA.XIR[0].XIC[10].icell.PDM VGND.t1738 sky130_fd_pr__nfet_01v8 ad=0.0725 pd=0.79 as=0.0725 ps=0.79 w=0.5 l=0.15
X148 a_n997_1579# XThR.TBN.t10 VGND.t134 VGND.t133 sky130_fd_pr__nfet_01v8 ad=0.08775 pd=0.92 as=0.08775 ps=0.92 w=0.65 l=0.15
X149 XA.XIR[6].XIC[14].icell.PDM XThR.Tn[5].t13 VGND.t347 VGND.t346 sky130_fd_pr__nfet_01v8 ad=0.1312 pd=1.54 as=0.0725 ps=0.79 w=0.5 l=0.15
X150 XA.XIR[6].XIC[8].icell.PDM XThR.Tn[5].t14 VGND.t349 VGND.t348 sky130_fd_pr__nfet_01v8 ad=0.1312 pd=1.54 as=0.0725 ps=0.79 w=0.5 l=0.15
X151 XA.XIR[10].XIC_dummy_left.icell.PUM VPWR.t1772 XA.XIR[10].XIC_dummy_left.icell.Ien VPWR.t1773 sky130_fd_pr__pfet_01v8 ad=0.0675 pd=0.77 as=0.0725 ps=0.79 w=0.5 l=0.15
X152 XA.XIR[9].XIC[14].icell.SM XA.XIR[9].XIC[14].icell.Ien Iout.t8 VGND.t51 sky130_fd_pr__nfet_g5v0d10v5 ad=0.0625 pd=0.75 as=0.175 ps=1.7 w=0.5 l=0.5
X153 VGND.t1637 XThC.Tn[4].t14 XA.XIR[14].XIC[4].icell.PDM VGND.t1636 sky130_fd_pr__nfet_01v8 ad=0.0725 pd=0.79 as=0.0725 ps=0.79 w=0.5 l=0.15
X154 XA.XIR[8].XIC[6].icell.PDM XThR.Tn[8].t17 XA.XIR[8].XIC[6].icell.Ien VGND.t870 sky130_fd_pr__nfet_01v8 ad=0.0725 pd=0.79 as=0.2304 ps=2.18 w=0.5 l=0.15
X155 XA.XIR[1].XIC[7].icell.PUM XThC.Tn[7].t9 XA.XIR[1].XIC[7].icell.Ien VPWR.t1178 sky130_fd_pr__pfet_01v8 ad=0.0675 pd=0.77 as=0.0725 ps=0.79 w=0.5 l=0.15
X156 XA.XIR[7].XIC[1].icell.PDM XThR.Tn[6].t16 VGND.t416 VGND.t415 sky130_fd_pr__nfet_01v8 ad=0.1312 pd=1.54 as=0.0725 ps=0.79 w=0.5 l=0.15
X157 XA.XIR[2].XIC[5].icell.PDM XThR.Tn[1].t16 VGND.t108 VGND.t107 sky130_fd_pr__nfet_01v8 ad=0.1312 pd=1.54 as=0.0725 ps=0.79 w=0.5 l=0.15
X158 XA.XIR[11].XIC[7].icell.PDM XThR.Tn[11].t16 XA.XIR[11].XIC[7].icell.Ien VGND.t1612 sky130_fd_pr__nfet_01v8 ad=0.0725 pd=0.79 as=0.2304 ps=2.18 w=0.5 l=0.15
X159 XA.XIR[4].XIC[8].icell.PUM XThC.Tn[8].t13 XA.XIR[4].XIC[8].icell.Ien VPWR.t704 sky130_fd_pr__pfet_01v8 ad=0.0675 pd=0.77 as=0.0725 ps=0.79 w=0.5 l=0.15
X160 XA.XIR[9].XIC[3].icell.PDM XThR.Tn[8].t18 VGND.t872 VGND.t871 sky130_fd_pr__nfet_01v8 ad=0.1312 pd=1.54 as=0.0725 ps=0.79 w=0.5 l=0.15
X161 XA.XIR[0].XIC_15.icell.SM XA.XIR[0].XIC_15.icell.Ien Iout.t117 VGND.t1009 sky130_fd_pr__nfet_g5v0d10v5 ad=0.0625 pd=0.75 as=0.175 ps=1.7 w=0.5 l=0.5
X162 XA.XIR[4].XIC[12].icell.SM XA.XIR[4].XIC[12].icell.Ien Iout.t53 VGND.t384 sky130_fd_pr__nfet_g5v0d10v5 ad=0.0625 pd=0.75 as=0.175 ps=1.7 w=0.5 l=0.5
X163 XA.XIR[14].XIC[9].icell.PDM XThR.Tn[13].t13 VGND.t13 VGND.t12 sky130_fd_pr__nfet_01v8 ad=0.1312 pd=1.54 as=0.0725 ps=0.79 w=0.5 l=0.15
X164 XA.XIR[11].XIC[12].icell.PUM XThC.Tn[12].t13 XA.XIR[11].XIC[12].icell.Ien VPWR.t1229 sky130_fd_pr__pfet_01v8 ad=0.0675 pd=0.77 as=0.0725 ps=0.79 w=0.5 l=0.15
X165 XA.XIR[12].XIC[4].icell.Ien XThR.Tn[12].t16 VPWR.t64 VPWR.t63 sky130_fd_pr__pfet_01v8 ad=0.0725 pd=0.79 as=0.15 ps=1.6 w=0.5 l=0.15
X166 XA.XIR[3].XIC[4].icell.SM XA.XIR[3].XIC[4].icell.Ien Iout.t25 VGND.t207 sky130_fd_pr__nfet_g5v0d10v5 ad=0.0625 pd=0.75 as=0.175 ps=1.7 w=0.5 l=0.5
X167 XA.XIR[15].XIC[0].icell.Ien VPWR.t1769 VPWR.t1771 VPWR.t1770 sky130_fd_pr__pfet_01v8 ad=0.0725 pd=0.79 as=0.15 ps=1.6 w=0.5 l=0.15
X168 VGND.t936 Vbias.t19 XA.XIR[8].XIC_15.icell.SM VGND.t935 sky130_fd_pr__nfet_g5v0d10v5 ad=0.175 pd=1.7 as=0.0625 ps=0.75 w=0.5 l=0.5
X169 VGND.t1181 XThC.Tn[14].t13 XA.XIR[8].XIC[14].icell.PDM VGND.t1180 sky130_fd_pr__nfet_01v8 ad=0.0725 pd=0.79 as=0.0725 ps=0.79 w=0.5 l=0.15
X170 XA.XIR[7].XIC_dummy_right.icell.Ien VPWR.t1766 VPWR.t1768 VPWR.t1767 sky130_fd_pr__pfet_01v8 ad=0.0725 pd=0.79 as=0.15 ps=1.6 w=0.5 l=0.15
X171 XA.XIR[4].XIC[0].icell.PDM XThR.Tn[4].t16 XA.XIR[4].XIC[0].icell.Ien VGND.t2077 sky130_fd_pr__nfet_01v8 ad=0.0725 pd=0.79 as=0.2304 ps=2.18 w=0.5 l=0.15
X172 VGND.t1208 XThC.Tn[8].t14 XA.XIR[8].XIC[8].icell.PDM VGND.t1207 sky130_fd_pr__nfet_01v8 ad=0.0725 pd=0.79 as=0.0725 ps=0.79 w=0.5 l=0.15
X173 XA.XIR[14].XIC[14].icell.Ien XThR.Tn[14].t13 VPWR.t313 VPWR.t312 sky130_fd_pr__pfet_01v8 ad=0.0725 pd=0.79 as=0.15 ps=1.6 w=0.5 l=0.15
X174 VGND.t1358 XThC.TBN.t16 XThC.Tn[1].t11 VGND.t510 sky130_fd_pr__nfet_01v8 ad=0.08775 pd=0.92 as=0.08775 ps=0.92 w=0.65 l=0.15
X175 VGND.t938 Vbias.t20 XA.XIR[1].XIC[5].icell.SM VGND.t937 sky130_fd_pr__nfet_g5v0d10v5 ad=0.175 pd=1.7 as=0.0625 ps=0.75 w=0.5 l=0.5
X176 VPWR.t66 XThR.Tn[12].t17 XA.XIR[13].XIC[10].icell.PUM VPWR.t65 sky130_fd_pr__pfet_01v8 ad=0.135 pd=1.54 as=0.0675 ps=0.77 w=0.5 l=0.15
X177 XA.XIR[7].XIC[3].icell.PUM XThC.Tn[3].t13 XA.XIR[7].XIC[3].icell.Ien VPWR.t374 sky130_fd_pr__pfet_01v8 ad=0.0675 pd=0.77 as=0.0725 ps=0.79 w=0.5 l=0.15
X178 XA.XIR[2].XIC_15.icell.PUM VPWR.t1764 XA.XIR[2].XIC_15.icell.Ien VPWR.t1765 sky130_fd_pr__pfet_01v8 ad=0.0675 pd=0.77 as=0.0725 ps=0.79 w=0.5 l=0.15
X179 XA.XIR[2].XIC[13].icell.PDM XThR.Tn[2].t15 XA.XIR[2].XIC[13].icell.Ien VGND.t1697 sky130_fd_pr__nfet_01v8 ad=0.0725 pd=0.79 as=0.2304 ps=2.18 w=0.5 l=0.15
X180 VPWR.t1300 XThR.Tn[9].t15 XA.XIR[10].XIC[12].icell.PUM VPWR.t1299 sky130_fd_pr__pfet_01v8 ad=0.135 pd=1.54 as=0.0675 ps=0.77 w=0.5 l=0.15
X181 VPWR.t638 XThR.Tn[8].t19 XA.XIR[9].XIC[0].icell.PUM VPWR.t637 sky130_fd_pr__pfet_01v8 ad=0.135 pd=1.54 as=0.0675 ps=0.77 w=0.5 l=0.15
X182 VGND.t940 Vbias.t21 XA.XIR[4].XIC[6].icell.SM VGND.t939 sky130_fd_pr__nfet_g5v0d10v5 ad=0.175 pd=1.7 as=0.0625 ps=0.75 w=0.5 l=0.5
X183 XA.XIR[1].XIC_dummy_left.icell.PDM VPWR.t1933 VGND.t2360 VGND.t2359 sky130_fd_pr__nfet_01v8 ad=0.1312 pd=1.54 as=0.0725 ps=0.79 w=0.5 l=0.15
X184 VPWR.t1763 VPWR.t1761 XA.XIR[6].XIC_dummy_left.icell.PUM VPWR.t1762 sky130_fd_pr__pfet_01v8 ad=0.135 pd=1.54 as=0.0675 ps=0.77 w=0.5 l=0.15
X185 VPWR.t832 XThC.TBN.t17 XThC.Tn[10].t9 VPWR.t77 sky130_fd_pr__pfet_01v8_hvt ad=0.135 pd=1.27 as=0.135 ps=1.27 w=1 l=0.15
X186 VGND.t136 XThR.TBN.t11 XThR.Tn[3].t11 VGND.t135 sky130_fd_pr__nfet_01v8 ad=0.169 pd=1.82 as=0.08775 ps=0.92 w=0.65 l=0.15
X187 XA.XIR[3].XIC[11].icell.PDM XThR.Tn[2].t16 VGND.t1696 VGND.t1695 sky130_fd_pr__nfet_01v8 ad=0.1312 pd=1.54 as=0.0725 ps=0.79 w=0.5 l=0.15
X188 XA.XIR[6].XIC[8].icell.Ien XThR.Tn[6].t17 VPWR.t355 VPWR.t354 sky130_fd_pr__pfet_01v8 ad=0.0725 pd=0.79 as=0.15 ps=1.6 w=0.5 l=0.15
X189 XThR.Tn[0].t7 XThR.TBN.t12 a_n1049_8581# VPWR.t81 sky130_fd_pr__pfet_01v8_hvt ad=0.135 pd=1.27 as=0.135 ps=1.27 w=1 l=0.15
X190 XA.XIR[13].XIC[12].icell.Ien XThR.Tn[13].t14 VPWR.t3 VPWR.t2 sky130_fd_pr__pfet_01v8 ad=0.0725 pd=0.79 as=0.15 ps=1.6 w=0.5 l=0.15
X191 XA.XIR[13].XIC[7].icell.SM XA.XIR[13].XIC[7].icell.Ien Iout.t96 VGND.t757 sky130_fd_pr__nfet_g5v0d10v5 ad=0.0625 pd=0.75 as=0.175 ps=1.7 w=0.5 l=0.5
X192 VPWR.t1097 VGND.t2689 XA.XIR[0].XIC[8].icell.PUM VPWR.t1096 sky130_fd_pr__pfet_01v8 ad=0.135 pd=1.54 as=0.0675 ps=0.77 w=0.5 l=0.15
X193 XA.XIR[10].XIC[14].icell.PDM XThR.Tn[10].t13 XA.XIR[10].XIC[14].icell.Ien VGND.t1938 sky130_fd_pr__nfet_01v8 ad=0.0725 pd=0.79 as=0.2304 ps=2.18 w=0.5 l=0.15
X194 XA.XIR[10].XIC[8].icell.PDM XThR.Tn[10].t14 XA.XIR[10].XIC[8].icell.Ien VGND.t556 sky130_fd_pr__nfet_01v8 ad=0.0725 pd=0.79 as=0.2304 ps=2.18 w=0.5 l=0.15
X195 XThC.Tn[12].t10 XThC.TB5 VPWR.t1270 VPWR.t74 sky130_fd_pr__pfet_01v8_hvt ad=0.135 pd=1.27 as=0.135 ps=1.27 w=1 l=0.15
X196 XA.XIR[1].XIC[11].icell.PUM XThC.Tn[11].t14 XA.XIR[1].XIC[11].icell.Ien VPWR.t1826 sky130_fd_pr__pfet_01v8 ad=0.0675 pd=0.77 as=0.0725 ps=0.79 w=0.5 l=0.15
X197 XThR.Tn[11].t11 XThR.TBN.t13 VPWR.t83 VPWR.t82 sky130_fd_pr__pfet_01v8_hvt ad=0.135 pd=1.27 as=0.135 ps=1.27 w=1 l=0.15
X198 XA.XIR[0].XIC[7].icell.Ien XThR.Tn[0].t14 VPWR.t596 VPWR.t595 sky130_fd_pr__pfet_01v8 ad=0.0725 pd=0.79 as=0.15 ps=1.6 w=0.5 l=0.15
X199 XA.XIR[3].XIC[2].icell.PDM XThR.Tn[2].t17 VGND.t1694 VGND.t1693 sky130_fd_pr__nfet_01v8 ad=0.1312 pd=1.54 as=0.0725 ps=0.79 w=0.5 l=0.15
X200 XA.XIR[8].XIC[9].icell.PUM XThC.Tn[9].t14 XA.XIR[8].XIC[9].icell.Ien VPWR.t1880 sky130_fd_pr__pfet_01v8 ad=0.0675 pd=0.77 as=0.0725 ps=0.79 w=0.5 l=0.15
X201 XA.XIR[9].XIC[7].icell.PDM XThR.Tn[8].t20 VGND.t874 VGND.t873 sky130_fd_pr__nfet_01v8 ad=0.1312 pd=1.54 as=0.0725 ps=0.79 w=0.5 l=0.15
X202 XA.XIR[1].XIC_dummy_left.icell.SM XA.XIR[1].XIC_dummy_left.icell.Ien XA.XIR[1].XIC_dummy_left.icell.Iout VGND.t238 sky130_fd_pr__nfet_g5v0d10v5 ad=0.0625 pd=0.75 as=0.175 ps=1.7 w=0.5 l=0.5
X203 XA.XIR[6].XIC[3].icell.PDM XThR.Tn[5].t15 VGND.t351 VGND.t350 sky130_fd_pr__nfet_01v8 ad=0.1312 pd=1.54 as=0.0725 ps=0.79 w=0.5 l=0.15
X204 VGND.t2417 XThC.Tn[11].t15 XA.XIR[5].XIC[11].icell.PDM VGND.t2416 sky130_fd_pr__nfet_01v8 ad=0.0725 pd=0.79 as=0.0725 ps=0.79 w=0.5 l=0.15
X205 XA.XIR[11].XIC[10].icell.PUM XThC.Tn[10].t14 XA.XIR[11].XIC[10].icell.Ien VPWR.t1027 sky130_fd_pr__pfet_01v8 ad=0.0675 pd=0.77 as=0.0725 ps=0.79 w=0.5 l=0.15
X206 XThR.Tn[2].t0 XThR.TBN.t14 VGND.t138 VGND.t137 sky130_fd_pr__nfet_01v8 ad=0.08775 pd=0.92 as=0.08775 ps=0.92 w=0.65 l=0.15
X207 VGND.t2419 XThC.Tn[11].t16 XA.XIR[9].XIC[11].icell.PDM VGND.t2418 sky130_fd_pr__nfet_01v8 ad=0.0725 pd=0.79 as=0.0725 ps=0.79 w=0.5 l=0.15